
  xtb     02042116523D
 xtb: 6.3.3 (5b13467)
 36 24  0     0  0            999 V2000
    6.0080   -1.2893    1.3525 H   0  0  0  0  0  0  0  0  0  0  0  0
    5.4869   -0.4467    1.2974 O   0  0  0  0  0  0  0  0  0  0  0  0
    6.2072    0.2080    1.3409 H   0  0  0  0  0  0  0  0  0  0  0  0
    7.1242   -2.9690    4.7224 H   0  0  0  0  0  0  0  0  0  0  0  0
    6.3953   -3.4198    4.2193 O   0  0  0  0  0  0  0  0  0  0  0  0
    5.5761   -3.0671    4.6566 H   0  0  0  0  0  0  0  0  0  0  0  0
    8.1786    1.4908    1.4359 H   0  0  0  0  0  0  0  0  0  0  0  0
    8.0656    0.5663    1.7320 O   0  0  0  0  0  0  0  0  0  0  0  0
    8.5016   -0.0034    1.0587 H   0  0  0  0  0  0  0  0  0  0  0  0
    8.2137   -1.1891   -0.7900 H   0  0  0  0  0  0  0  0  0  0  0  0
    9.0037   -0.8387   -0.3162 O   0  0  0  0  0  0  0  0  0  0  0  0
    9.7074   -1.5040   -0.4471 H   0  0  0  0  0  0  0  0  0  0  0  0
    9.6469   -4.0216    2.1409 H   0  0  0  0  0  0  0  0  0  0  0  0
    9.3492   -3.8220    1.2142 O   0  0  0  0  0  0  0  0  0  0  0  0
   10.1284   -3.6198    0.6790 H   0  0  0  0  0  0  0  0  0  0  0  0
    6.7427    0.1623    4.3100 H   0  0  0  0  0  0  0  0  0  0  0  0
    7.7086    0.3756    4.2915 O   0  0  0  0  0  0  0  0  0  0  0  0
    7.9416    0.3423    3.3203 H   0  0  0  0  0  0  0  0  0  0  0  0
    8.0494   -1.9487    6.2552 H   0  0  0  0  0  0  0  0  0  0  0  0
    8.4202   -2.1243    5.3676 O   0  0  0  0  0  0  0  0  0  0  0  0
    8.2963   -1.2535    4.9247 H   0  0  0  0  0  0  0  0  0  0  0  0
    8.1461    0.5554    7.4323 H   0  0  0  0  0  0  0  0  0  0  0  0
    8.4869    1.2401    6.8384 O   0  0  0  0  0  0  0  0  0  0  0  0
    8.2943    0.8768    5.9490 H   0  0  0  0  0  0  0  0  0  0  0  0
    6.7667   -2.8291    2.6869 H   0  0  0  0  0  0  0  0  0  0  0  0
    6.9166   -2.6150    1.7337 O   0  0  0  0  0  0  0  0  0  0  0  0
    7.8677   -2.7441    1.5631 H   0  0  0  0  0  0  0  0  0  0  0  0
   10.4286   -2.7846   -1.8725 H   0  0  0  0  0  0  0  0  0  0  0  0
   10.9038   -2.7607   -0.9979 O   0  0  0  0  0  0  0  0  0  0  0  0
   11.7691   -2.3997   -1.2194 H   0  0  0  0  0  0  0  0  0  0  0  0
    9.0767   -5.0801    3.9127 H   0  0  0  0  0  0  0  0  0  0  0  0
    9.7705   -4.3963    3.7900 O   0  0  0  0  0  0  0  0  0  0  0  0
    9.5224   -3.6973    4.4166 H   0  0  0  0  0  0  0  0  0  0  0  0
    9.5492    0.8124   -0.7273 H   0  0  0  0  0  0  0  0  0  0  0  0
    9.6265    1.7888   -0.7820 O   0  0  0  0  0  0  0  0  0  0  0  0
    9.9301    1.9371   -1.6896 H   0  0  0  0  0  0  0  0  0  0  0  0
  1  2  1  0  0  0  0
  2  3  1  0  0  0  0
  4  5  1  0  0  0  0
  5  6  1  0  0  0  0
  7  8  1  0  0  0  0
  8  9  1  0  0  0  0
 10 11  1  0  0  0  0
 11 12  1  0  0  0  0
 13 14  1  0  0  0  0
 14 15  1  0  0  0  0
 16 17  1  0  0  0  0
 17 18  1  0  0  0  0
 19 20  1  0  0  0  0
 20 21  1  0  0  0  0
 22 23  1  0  0  0  0
 23 24  1  0  0  0  0
 25 26  1  0  0  0  0
 26 27  1  0  0  0  0
 28 29  1  0  0  0  0
 29 30  1  0  0  0  0
 31 32  1  0  0  0  0
 32 33  1  0  0  0  0
 34 35  1  0  0  0  0
 35 36  1  0  0  0  0
M  END
