
  xtb     01212115573D
 xtb: 6.3.3 (5b13467)
 24 16  0     0  0            999 V2000
    9.6089   -3.8583    2.0941 H   0  0  0  0  0  0  0  0  0  0  0  0
    9.3179   -3.6233    1.1808 O   0  0  0  0  0  0  0  0  0  0  0  0
   10.1122   -3.4713    0.6484 H   0  0  0  0  0  0  0  0  0  0  0  0
    6.6196   -3.8696    0.2904 H   0  0  0  0  0  0  0  0  0  0  0  0
    7.1131   -4.6771    0.0491 O   0  0  0  0  0  0  0  0  0  0  0  0
    7.9984   -4.4786    0.4418 H   0  0  0  0  0  0  0  0  0  0  0  0
    7.4668   -4.4318   -1.6407 H   0  0  0  0  0  0  0  0  0  0  0  0
    7.6237   -4.4709   -2.6168 O   0  0  0  0  0  0  0  0  0  0  0  0
    6.8597   -3.9818   -2.9834 H   0  0  0  0  0  0  0  0  0  0  0  0
    3.9796   -8.0885   -1.0830 H   0  0  0  0  0  0  0  0  0  0  0  0
    4.5753   -7.5988   -0.4840 O   0  0  0  0  0  0  0  0  0  0  0  0
    5.0333   -7.0049   -1.1163 H   0  0  0  0  0  0  0  0  0  0  0  0
    6.7162   -5.9690   -2.7347 H   0  0  0  0  0  0  0  0  0  0  0  0
    5.9622   -6.6049   -2.7423 O   0  0  0  0  0  0  0  0  0  0  0  0
    6.3212   -7.5149   -2.7412 H   0  0  0  0  0  0  0  0  0  0  0  0
    6.2578   -5.7481    1.1407 H   0  0  0  0  0  0  0  0  0  0  0  0
    5.7603   -6.3203    1.7696 O   0  0  0  0  0  0  0  0  0  0  0  0
    5.3505   -6.9815    1.1887 H   0  0  0  0  0  0  0  0  0  0  0  0
    5.9348   -9.0920   -1.4081 H   0  0  0  0  0  0  0  0  0  0  0  0
    6.3110   -9.3326   -2.2713 O   0  0  0  0  0  0  0  0  0  0  0  0
    5.5422   -9.6739   -2.7500 H   0  0  0  0  0  0  0  0  0  0  0  0
    7.0904   -6.1995    3.2246 H   0  0  0  0  0  0  0  0  0  0  0  0
    7.5069   -5.8425    4.0301 O   0  0  0  0  0  0  0  0  0  0  0  0
    7.0189   -5.0045    4.1756 H   0  0  0  0  0  0  0  0  0  0  0  0
  1  2  1  0  0  0  0
  2  3  1  0  0  0  0
  4  5  1  0  0  0  0
  5  6  1  0  0  0  0
  7  8  1  0  0  0  0
  8  9  1  0  0  0  0
 10 11  1  0  0  0  0
 11 12  1  0  0  0  0
 13 14  1  0  0  0  0
 14 15  1  0  0  0  0
 16 17  1  0  0  0  0
 17 18  1  0  0  0  0
 19 20  1  0  0  0  0
 20 21  1  0  0  0  0
 22 23  1  0  0  0  0
 23 24  1  0  0  0  0
M  END
