6
Coordinates from ORCA-job ch3oh
  C   -0.04652365276637      0.66161548428400     -0.00000000155021
  O   -0.04176476999802     -0.75891752036480     -0.00000000410073
  H   -1.08839818581143      0.97231441662926      0.00000000167226
  H   0.87537567110624     -1.05174991766484      0.00000000714299
  H   0.43343897055686      1.08232726450765      0.88936225723771
  H   0.43343896691271      1.08232727260872     -0.88936226040202
