30
Coordinates from ORCA-job grain_mol_opt.QMRegion
  H   -2.40756514643627     -3.60707789339515      1.92145659954525
  O   -2.48444252091035     -4.52331291516494      2.27359696910303
  H   -1.55162460357879     -4.84024602353086      2.33344382072690
  H   0.73738115177709     -5.02666203815608      1.94749050433770
  O   0.18729314170917     -5.13391415281015      2.75023710781156
  H   0.39552884854564     -6.04716210878461      3.02456300156709
  H   -2.01757800522513     -8.19235279062162      0.42751372851702
  O   -1.63015861462909     -7.72013868037517      1.19352894302776
  H   -2.31799259008223     -7.71704144297308      1.89529927208824
  H   -5.42941940592628     -5.09306321617138      1.80177234667528
  O   -4.74717478358216     -5.75258693412784      1.50646876708477
  H   -3.88365872785169     -5.28536025145677      1.62784360331861
  H   -5.62040371820361     -8.15224534931888     -0.81474880412249
  O   -4.94942691655055     -8.21834296175301     -0.09782227022653
  H   -4.91539772843187     -7.33737129130799      0.30477154413264
  H   -2.03006038927431     -3.00738084614693      4.62687840739360
  O   -2.89231536807252     -3.47020859592082      4.72924932574784
  H   -2.89010290155190     -4.04253232994289      3.93299809260107
  H   -0.00710599183027     -8.09362622587049      2.45228499499857
  O   0.78500711760122     -7.88542409046603      2.97094679621993
  H   1.52244921078589     -8.13633011843190      2.38011319900669
  H   -3.65860519446948     -3.62326322870698      7.86325712484081
  O   -3.69896759285743     -2.90600141250341      7.23108541924942
  H   -3.42922063622229     -3.26782202334946      6.35762709127312
  C   -3.37520175431417     -7.34192434163729      4.45691293712634
  O   -3.59318125426760     -7.69530168233451      3.09470025309069
  H   -2.71772483040052     -8.09053893453353      4.88994772993509
  H   -4.20541320477196     -7.04445599561093      2.69499504859186
  H   -2.90242373484565     -6.36370987465656      4.55764075806374
  H   -4.31138792838233     -7.34142927635584      5.01765525296099
