
  xtb     02042113313D
 xtb: 6.3.3 (5b13467)
 28 19  0     0  0            999 V2000
    9.7568   -3.3399    2.0916 H   0  0  0  0  0  0  0  0  0  0  0  0
    9.4493   -3.1209    1.1811 O   0  0  0  0  0  0  0  0  0  0  0  0
   10.2307   -2.9292    0.6417 H   0  0  0  0  0  0  0  0  0  0  0  0
    6.7493   -3.5324    0.2628 H   0  0  0  0  0  0  0  0  0  0  0  0
    7.3091   -4.3033    0.0517 O   0  0  0  0  0  0  0  0  0  0  0  0
    8.1712   -4.0267    0.4485 H   0  0  0  0  0  0  0  0  0  0  0  0
    7.6544   -4.0302   -1.6551 H   0  0  0  0  0  0  0  0  0  0  0  0
    7.8138   -4.0396   -2.6295 O   0  0  0  0  0  0  0  0  0  0  0  0
    7.0146   -3.6029   -2.9877 H   0  0  0  0  0  0  0  0  0  0  0  0
    4.3526   -7.7042   -1.0608 H   0  0  0  0  0  0  0  0  0  0  0  0
    4.7502   -6.9912   -0.5305 O   0  0  0  0  0  0  0  0  0  0  0  0
    5.2805   -6.5181   -1.2090 H   0  0  0  0  0  0  0  0  0  0  0  0
    6.9495   -5.5997   -2.7777 H   0  0  0  0  0  0  0  0  0  0  0  0
    6.2012   -6.2347   -2.7724 O   0  0  0  0  0  0  0  0  0  0  0  0
    6.5652   -7.1584   -2.7606 H   0  0  0  0  0  0  0  0  0  0  0  0
    6.5014   -5.4170    1.1553 H   0  0  0  0  0  0  0  0  0  0  0  0
    6.0110   -6.0688    1.7074 O   0  0  0  0  0  0  0  0  0  0  0  0
    5.4711   -6.5321    1.0308 H   0  0  0  0  0  0  0  0  0  0  0  0
    7.0827   -8.8427   -1.5733 H   0  0  0  0  0  0  0  0  0  0  0  0
    6.8160   -8.8316   -2.5305 O   0  0  0  0  0  0  0  0  0  0  0  0
    5.9085   -9.1674   -2.5489 H   0  0  0  0  0  0  0  0  0  0  0  0
    7.3123   -5.8344    3.2197 H   0  0  0  0  0  0  0  0  0  0  0  0
    7.7227   -5.4467    4.0112 O   0  0  0  0  0  0  0  0  0  0  0  0
    7.2016   -4.6272    4.1535 H   0  0  0  0  0  0  0  0  0  0  0  0
    7.7923   -8.5864    0.1187 N   0  0  0  0  0  0  0  0  0  0  0  0
    8.7676   -8.3197    0.0180 H   0  0  0  0  0  0  0  0  0  0  0  0
    7.7730   -9.3943    0.7339 H   0  0  0  0  0  0  0  0  0  0  0  0
    7.3220   -7.8265    0.6078 H   0  0  0  0  0  0  0  0  0  0  0  0
  1  2  1  0  0  0  0
  2  3  1  0  0  0  0
  4  5  1  0  0  0  0
  5  6  1  0  0  0  0
  7  8  1  0  0  0  0
  8  9  1  0  0  0  0
 10 11  1  0  0  0  0
 11 12  1  0  0  0  0
 13 14  1  0  0  0  0
 14 15  1  0  0  0  0
 16 17  1  0  0  0  0
 17 18  1  0  0  0  0
 19 20  1  0  0  0  0
 20 21  1  0  0  0  0
 22 23  1  0  0  0  0
 23 24  1  0  0  0  0
 25 26  1  0  0  0  0
 25 27  1  0  0  0  0
 25 28  1  0  0  0  0
M  END
