
  xtb     02042119273D
 xtb: 6.3.3 (5b13467)
 40 27  0     0  0            999 V2000
    6.0962   -1.1403    1.2273 H   0  0  0  0  0  0  0  0  0  0  0  0
    5.5203   -0.3314    1.1672 O   0  0  0  0  0  0  0  0  0  0  0  0
    6.1653    0.3884    1.2295 H   0  0  0  0  0  0  0  0  0  0  0  0
    7.2381   -2.9774    4.5595 H   0  0  0  0  0  0  0  0  0  0  0  0
    6.4764   -3.3507    4.0249 O   0  0  0  0  0  0  0  0  0  0  0  0
    5.6761   -3.0018    4.4941 H   0  0  0  0  0  0  0  0  0  0  0  0
    8.2624    1.6106    1.3740 H   0  0  0  0  0  0  0  0  0  0  0  0
    8.2760    0.6861    1.6848 O   0  0  0  0  0  0  0  0  0  0  0  0
    8.5442    0.1381    0.9161 H   0  0  0  0  0  0  0  0  0  0  0  0
    8.1420   -1.0703   -0.9518 H   0  0  0  0  0  0  0  0  0  0  0  0
    8.9421   -0.7220   -0.4925 O   0  0  0  0  0  0  0  0  0  0  0  0
    9.6479   -1.3764   -0.6568 H   0  0  0  0  0  0  0  0  0  0  0  0
    9.7193   -4.0722    1.8962 H   0  0  0  0  0  0  0  0  0  0  0  0
    9.3938   -3.7222    1.0230 O   0  0  0  0  0  0  0  0  0  0  0  0
   10.1506   -3.5851    0.4368 H   0  0  0  0  0  0  0  0  0  0  0  0
    6.7182    0.2742    4.3194 H   0  0  0  0  0  0  0  0  0  0  0  0
    7.6547    0.5706    4.2683 O   0  0  0  0  0  0  0  0  0  0  0  0
    7.9197    0.3780    3.3437 H   0  0  0  0  0  0  0  0  0  0  0  0
    8.1187   -1.8867    6.0400 H   0  0  0  0  0  0  0  0  0  0  0  0
    8.5470   -2.4031    5.3283 O   0  0  0  0  0  0  0  0  0  0  0  0
    9.0199   -1.7547    4.7530 H   0  0  0  0  0  0  0  0  0  0  0  0
    8.2403    0.6250    7.3432 H   0  0  0  0  0  0  0  0  0  0  0  0
    8.5494    1.3021    6.7249 O   0  0  0  0  0  0  0  0  0  0  0  0
    8.3110    0.9224    5.8466 H   0  0  0  0  0  0  0  0  0  0  0  0
    6.7993   -2.7216    2.5253 H   0  0  0  0  0  0  0  0  0  0  0  0
    6.9387   -2.5025    1.5658 O   0  0  0  0  0  0  0  0  0  0  0  0
    7.8891   -2.6119    1.3963 H   0  0  0  0  0  0  0  0  0  0  0  0
   10.3627   -2.6385   -2.1006 H   0  0  0  0  0  0  0  0  0  0  0  0
   10.8531   -2.6313   -1.2332 O   0  0  0  0  0  0  0  0  0  0  0  0
   11.7148   -2.2687   -1.4662 H   0  0  0  0  0  0  0  0  0  0  0  0
    9.1839   -5.2135    3.6038 H   0  0  0  0  0  0  0  0  0  0  0  0
    9.9524   -4.6084    3.4800 O   0  0  0  0  0  0  0  0  0  0  0  0
    9.8226   -3.9622    4.1906 H   0  0  0  0  0  0  0  0  0  0  0  0
    9.4680    0.9420   -0.9146 H   0  0  0  0  0  0  0  0  0  0  0  0
    9.5430    1.9181   -0.9662 O   0  0  0  0  0  0  0  0  0  0  0  0
    9.8214    2.0725   -1.8810 H   0  0  0  0  0  0  0  0  0  0  0  0
   10.2442   -1.1934    3.3441 N   0  0  0  0  0  0  0  0  0  0  0  0
    9.9886   -0.3073    2.9148 H   0  0  0  0  0  0  0  0  0  0  0  0
   10.2801   -1.8793    2.5943 H   0  0  0  0  0  0  0  0  0  0  0  0
   11.1854   -1.0959    3.7113 H   0  0  0  0  0  0  0  0  0  0  0  0
  1  2  1  0  0  0  0
  2  3  1  0  0  0  0
  4  5  1  0  0  0  0
  5  6  1  0  0  0  0
  7  8  1  0  0  0  0
  8  9  1  0  0  0  0
 10 11  1  0  0  0  0
 11 12  1  0  0  0  0
 13 14  1  0  0  0  0
 14 15  1  0  0  0  0
 16 17  1  0  0  0  0
 17 18  1  0  0  0  0
 19 20  1  0  0  0  0
 20 21  1  0  0  0  0
 22 23  1  0  0  0  0
 23 24  1  0  0  0  0
 25 26  1  0  0  0  0
 26 27  1  0  0  0  0
 28 29  1  0  0  0  0
 29 30  1  0  0  0  0
 31 32  1  0  0  0  0
 32 33  1  0  0  0  0
 34 35  1  0  0  0  0
 35 36  1  0  0  0  0
 37 38  1  0  0  0  0
 37 39  1  0  0  0  0
 37 40  1  0  0  0  0
M  END
