33
Coordinates from ORCA-job grain_mol_opt.QMRegion
  H   0.39194895581712     -3.31747568740163     -4.06316146318472
  O   1.29695988763955     -3.05880310012952     -4.33786349270420
  H   1.18923827009047     -2.42924739537519     -5.06785120828138
  H   -1.54912731709986     -0.82404599765175     -4.50746887840908
  O   -1.02571369366864     -0.64201860154047     -5.31323114612116
  H   -0.34805637983649     -0.00351819257601     -5.02486347734691
  H   2.24373561288814     -4.63625537664023     -6.79410300729491
  O   2.08970188941197     -5.07389361125547     -5.94686172711223
  H   1.79276503982937     -4.34958511841053     -5.34309490324347
  H   3.34770198946221     -2.62352501794542     -8.49434869529603
  O   3.24485991721145     -3.11239302786206     -7.65671347908484
  H   4.14068569555215     -3.09897169909966     -7.26468177296087
  H   3.19733190588091     -0.94229735761526     -5.57764851869590
  O   2.35253671616720     -1.12013351778204     -6.05642345355356
  H   2.58488228288954     -1.86087808242570     -6.66436562258277
  H   1.81753617635324     -0.16372929190249     -7.47811952375847
  O   1.34910253478166      0.25333841457069     -8.23184380346044
  H   1.32717583746627     -0.44347777114898     -8.90822291434873
  H   4.97996448731093     -1.41141001653275     -9.33595029487516
  O   4.03599432862990     -1.15362535822348     -9.49202924200913
  H   3.95022110889950     -1.07231979975203    -10.44505918106957
  H   -2.85299936461254     -3.97995483684669     -6.09491479570021
  O   -2.06401331841720     -4.51898405886934     -5.90557720838128
  H   -1.78729002317148     -4.24646827470898     -4.99906979371243
  H   -0.43748005767005      0.44786848127174     -7.99856323689727
  O   -1.38286496313735      0.65324699664893     -7.82982973081593
  H   -1.56376944274934      0.19824129030901     -6.99219563302509
  H   -0.78058086085529     -3.42789424414125     -6.75916831632181
  O   -0.14839874974777     -2.71214596840977     -6.94571881787374
  H   -0.51169297901469     -1.95747199469371     -6.44132227840085
  O   0.75947719599235     -2.17793552875961     -9.47832737716458
  H   0.34882803834816     -2.42284840939762     -8.61679759107875
  H   0.03167656874811     -2.18451945141324    -10.10521777685515
