12
Coordinates from ORCA-job grain_mol_opt.QMRegion
  H   -7.03263518355629     -3.41805505532105     -3.41833012372342
  O   -7.64506929819882     -4.03045713422676     -3.88977013400875
  H   -7.08819441861567     -4.46197985890770     -4.56369988486606
  H   -5.18014706602634     -5.72352910207593     -5.35930287907685
  O   -5.82719213848544     -5.09707337265054     -5.72783326261014
  H   -5.28521538092257     -4.30520789554200     -5.94258609984622
  C   -7.60682304049166     -6.18560940562008     -8.66539628812182
  O   -6.25414787583159     -6.33958648564310     -8.28315914580883
  H   -7.71431471055783     -6.60158690997676     -9.66565963095020
  H   -6.14087972984952     -5.91850819586180     -7.41360013357661
  H   -8.29633077871400     -6.72136451229789     -8.00290870671857
  H   -7.91731766421229     -5.13562375172108     -8.70510973648069
